<?xml version="1.0" encoding="UTF-8"?>
<flow xmlns="http://www.springframework.org/schema/webflow"
      xmlns:xsi="http://www.w3.org/2001/XMLSchema-instance"
      xsi:schemaLocation="http://www.springframework.org/schema/webflow http://www.springframework.org/schema/webflow/spring-webflow-2.0.xsd">
    <var name="controller" class="controller.search.SearchController"/>
    <var name="searchPojo" class="base.SearchPojo"/>
    <on-start>
        <evaluate expression="controller.init()"/>
    </on-start>
    <view-state id="home" view="/WEB-INF/flows/home/search/search.xhtml">
        <transition on="search" to="search"/>
    </view-state>
    <subflow-state id="search" subflow="home/result">
        <input name="resultList" value="flowScope.resultList"/>
        <input name="searchPojo" value="flowScope.searchPojo"/>
    </subflow-state>
</flow>