<?xml version="1.0" encoding="UTF-8"?>
<flow xmlns="http://www.springframework.org/schema/webflow"
      xmlns:xsi="http://www.w3.org/2001/XMLSchema-instance"
      xsi:schemaLocation="http://www.springframework.org/schema/webflow http://www.springframework.org/schema/webflow/spring-webflow-2.0.xsd">
    <var name="controller" class="controller.search.SearchResultController"/>
    <var name="resultPojo" class="base.ResultSearchPojo"/>
    <input name="searchPojo" value="flowScope.searchPojo"/>
    <input name="resultList" value="flowScope.resultList"/>
    <view-state id="home" view="/WEB-INF/flows/home/result/searchResult.xhtml">
        <on-entry>
            <evaluate expression="controller.init()"/>
        </on-entry>
        <transition on="search" to="search"/>
    </view-state>
    <subflow-state id="search" subflow="home/result">
        <input name="resultList" value="flowScope.resultList"/>
        <input name="searchPojo" value="flowScope.searchPojo"/>
    </subflow-state>

</flow>